1020 295 17  
10 295 17 1.0 0.0
100 295 17 3.0 0.0
200 296 19 4.0 0.0
300 296 19 6.0 0.0
400 297 19 6.0 0.0
500 297 19 7.0 0.0
600 298 19 7.0 0.0
700 298 19 7.0 0.0
800 299 19 7.0 0.0
900 299 19 15.5 0.0
1000 300 18 15.5 0.0
1100 300 18 15.5 0.0
1200 301 18 15.5 0.0
1300 301 18 15.5 0.0
1400 302 17 15.5 0.0
1500 302 17 15.5 0.0
1600 303 16 15.5 0.0
1700 303 15 15.5 0.0
1800 304 14 15.5 0.0
1900 304 14 15.5 0.0
2000 305 13 15.5 0.0
3000 310 9 15.5 0.0
3500 312 8 15.5 0.0
4000 315 7 15.5 0.0
4500 317 6 24.0 0.0
5000 320 5 27.5 0.0
5500 322 4 31.0 0.0
6000 325 4 31.0 0.0
6500 327 3 35.0 0.0
7000 330 2 39.0 0.0
7500 332 1 39.0 0.0
8000 335 1 40.0 0.0
8500 337 1 47.0 0.0
9000 340 1 50.0 0.0
10000 345 1 51.0 0.0
16000 375 1 26.0 0.0
