1020 295 8  
10 295 8 2.0 0.0
100 295 8 3.0 0.0
200 295 8 4.0 0.0
300 295 8 6.0 0.0
400 295 8 6.0 0.0
500 295 7 7.0 0.0
600 295 7 7.0 0.0
700 295 7 7.0 0.0
800 295 7 7.0 0.0
900 295 7 7.0 0.0
1000 295 7 7.0 0.0
1100 295 7 7.0 0.0
1200 295 6 9.0 0.0
1300 295 6 10.0 0.0
1400 295 6 10.0 0.0
1500 296 6 10.0 0.0
1600 296 6 10.0 0.0
1700 297 6 10.0 0.0
1800 297 6 11.0 0.0
1900 298 6 11.0 0.0
2000 298 6 11.0 0.0
3000 303 5 11.0 0.0
3500 303 4 12.0 0.0
4000 303 3 13.0 0.0
4500 303 3 15.0 0.0
5000 303 2 18.0 0.0
5500 303 2 19.0 0.0
6000 303 2 19.0 0.0
6500 303 1 20.0 0.0
7000 303 1 28.0 0.0
7500 303 0 28.0 0.0
8000 303 0 28.0 0.0
8500 303 0 29.0 0.0
9000 303 0 35.0 0.0
10000 303 0 34.0 0.0
16000 303 0 13.0 0.0
