1020 295 10  
10 295 10 0.0 0.0
100 295 10 1.0 0.0
200 295 10 2.0 0.0
300 295 10 2.0 0.0
400 295 10 2.0 0.0
500 295 10 2.0 0.0
600 295 10 3.0 0.0
700 295 10 3.0 0.0
800 295 10 4.0 0.0
900 295 10 4.0 0.0
1000 295 9 4.0 0.0
1100 296 9 4.0 0.0
1200 296 9 4.0 0.0
1300 297 9 5.0 0.0
1400 297 9 5.0 0.0
1500 298 8 5.0 0.0
1600 298 8 5.0 0.0
1700 299 7 5.0 0.0
1800 299 7 6.0 0.0
1900 300 7 6.0 0.0
2000 300 7 6.0 0.0
3000 305 5 8.0 0.0
3500 308 4 9.0 0.0
4000 310 4 10.0 0.0
4500 313 3 11.0 0.0
5000 315 3 11.0 0.0
5500 318 2 13.0 0.0
6000 320 2 13.0 0.0
6500 323 1 16.0 0.0
7000 325 1 18.0 0.0
7500 328 1 18.0 0.0
8000 330 1 19.0 0.0
8500 333 0 20.0 0.0
9000 335 0 21.0 0.0
10000 340 0 23.0 0.0
16000 370 0 12.0 0.0
